Circuit: * D:\projects\motor-controller\charge-pump.asc

Warning: Multiple definitions of model "2scr375p" Type: BJT
Warning: Multiple definitions of model "bc857b" Type: BJT
Warning: Multiple definitions of model "bc847c" Type: BJT
Warning: Multiple definitions of model "bc847b" Type: BJT
Direct Newton iteration for .op point succeeded.

Date: Sat Apr 02 22:08:12 2022
Total elapsed time: 0.129 seconds.

tnom = 27
temp = 27
method = modified trap
totiter = 5578
traniter = 5548
tranpoints = 2545
accept = 2256
rejected = 289
matrix size = 7
fillins = 0
solver = Normal
Matrix Compiler1: 214 bytes object code size  0.1/0.1/[0.0]
Matrix Compiler2: off  [0.0]/0.1/0.0

