Circuit: * D:\projects\motor-controller\Draft2.asc

Warning: Multiple definitions of model "2scr375p" Type: BJT
Warning: Multiple definitions of model "bc857b" Type: BJT
Warning: Multiple definitions of model "bc847c" Type: BJT
Warning: Multiple definitions of model "bc847b" Type: BJT

Date: Mon Apr 04 15:48:26 2022
Total elapsed time: 0.047 seconds.

tnom = 27
temp = 27
method = trap
totiter = 47
traniter = 0
tranpoints = 0
accept = 0
rejected = 0
matrix size = 12
fillins = 6
solver = Normal
Matrix Compiler1: 1.13 KB object code size
Matrix Compiler2: 1.06 KB object code size
