Circuit: * D:\projects\motor-controller\Draft4.asc

Warning: Multiple definitions of model "2scr375p" Type: BJT
Warning: Multiple definitions of model "bc857b" Type: BJT
Warning: Multiple definitions of model "bc847c" Type: BJT
Warning: Multiple definitions of model "bc847b" Type: BJT
Direct Newton iteration for .op point succeeded.

Date: Tue Jul 05 22:50:19 2022
Total elapsed time: 0.046 seconds.

tnom = 27
temp = 27
method = modified trap
totiter = 2087
traniter = 2082
tranpoints = 1042
accept = 1042
rejected = 0
matrix size = 8
fillins = 0
solver = Normal
Matrix Compiler1: 344 bytes object code size  0.1/0.1/[0.0]
Matrix Compiler2: 594 bytes object code size  0.1/0.1/[0.0]

