Circuit: * D:\projects\motor-controller\Draft1.asc

Warning: Multiple definitions of model "2scr375p" Type: BJT
Warning: Multiple definitions of model "bc857b" Type: BJT
Warning: Multiple definitions of model "bc847c" Type: BJT
Warning: Multiple definitions of model "bc847b" Type: BJT
Direct Newton iteration for .op point succeeded.

Date: Sat Apr 02 23:45:39 2022
Total elapsed time: 0.109 seconds.

tnom = 27
temp = 27
method = modified trap
totiter = 3488
traniter = 3483
tranpoints = 1475
accept = 1361
rejected = 114
matrix size = 20
fillins = 0
solver = Normal
Matrix Compiler1: 1.19 KB object code size  0.2/0.1/[0.1]
Matrix Compiler2: 1.71 KB object code size  0.1/0.2/[0.1]

