Circuit: * D:\projects\dc-motor-controller\spice\h-bridge.asc

WARNING: Less than two connections to node NC_01.  This node is used by V3.
Direct Newton iteration for .op point succeeded.

Date: Thu Jul 07 21:57:04 2022
Total elapsed time: 0.307 seconds.

tnom = 27
temp = 27
method = modified trap
totiter = 20260
traniter = 20222
tranpoints = 6348
accept = 5017
rejected = 1331
matrix size = 78
fillins = 104
solver = Normal
Matrix Compiler1: 11.83 KB object code size  1.5/0.7/[0.7]
Matrix Compiler2: 8.66 KB object code size  0.5/0.7/[0.4]

