Circuit: * D:\projects\dc-motor-controller\spice\h-bridge-minimal.asc

WARNING: Less than two connections to node NC_01.  This node is used by V3.
Direct Newton iteration for .op point succeeded.

Date: Thu Jul 07 21:43:48 2022
Total elapsed time: 0.398 seconds.

tnom = 27
temp = 27
method = modified trap
totiter = 54406
traniter = 54385
tranpoints = 15279
accept = 11471
rejected = 3808
matrix size = 50
fillins = 34
solver = Normal
Matrix Compiler1: 4.88 KB object code size  0.7/0.3/[0.3]
Matrix Compiler2: 4.77 KB object code size  0.3/0.4/[0.3]

