Circuit: * D:\projects\dc-motor-controller\spice\h-bridge-minimal.asc

Per .tran options, skipping operating point for transient analysis.

Date: Tue Jul 12 23:03:48 2022
Total elapsed time: 0.452 seconds.

tnom = 27
temp = 27
method = modified trap
totiter = 54522
traniter = 54522
tranpoints = 15437
accept = 11858
rejected = 3579
matrix size = 61
fillins = 26
solver = Normal
Matrix Compiler1: 5.27 KB object code size  0.8/0.3/[0.3]
Matrix Compiler2: off  [0.3]/0.5/0.7

