Circuit: * D:\projects\motor-controller\h-bridge.asc

Warning: Multiple definitions of model "2scr375p" Type: BJT
Warning: Multiple definitions of model "bc857b" Type: BJT
Warning: Multiple definitions of model "bc847c" Type: BJT
Warning: Multiple definitions of model "bc847b" Type: BJT
Direct Newton iteration for .op point succeeded.

Date: Sun Jul 03 17:51:53 2022
Total elapsed time: 0.548 seconds.

tnom = 27
temp = 27
method = modified trap
totiter = 33674
traniter = 33636
tranpoints = 9930
accept = 7516
rejected = 2414
matrix size = 77
fillins = 88
solver = Normal
Matrix Compiler1: 10.85 KB object code size  1.3/0.7/[0.6]
Matrix Compiler2: 8.38 KB object code size  0.5/0.7/[0.4]

